Circuit: * D:\Developments\Elektronika\Motor Control\Projects\FOC Servo\Scheme and Board\Work\Resolver_and_SinEnc\RES-SIN-COS.asc

Direct Newton iteration failed to find .op point.  (Use ".option noopiter" to skip.)
Starting Gmin stepping
Gmin = 10
Gmin = 1.07374
Gmin = 0.115292
Gmin = 0.0123794
Gmin = 0.00132923
Gmin = 0.000142725
Gmin = 1.5325e-005
Gmin = 1.6455e-006
Gmin = 1.76685e-007
Gmin = 1.89714e-008
Gmin = 2.03704e-009
Gmin = 2.18725e-010
Gmin = 2.34854e-011
Gmin = 2.52173e-012
Gmin = 2.70769e-013
Gmin = 0
Gmin stepping succeeded in finding the operating point.


Date: Fri Oct 09 01:03:01 2020
Total elapsed time: 0.083 seconds.

tnom = 27
temp = 27
method = modified trap
totiter = 2485
traniter = 2090
tranpoints = 1046
accept = 1046
rejected = 0
matrix size = 29
fillins = 21
solver = Normal
Thread vector: 4.9/3.2[2] 1.4/1.1[2] 0.7/2.5[1] 0.1/0.7[1]  2592/500
Matrix Compiler1: 1.60 KB object code size  0.4/0.2/[0.1]
Matrix Compiler2: off  [0.2]/0.3/0.2


