Circuit: * D:\Developments\Elektronika\Motor Control\Projects\FOC Servo\Scheme and Board\Work\VoltageSensing\VoltageSensing.asc

Direct Newton iteration failed to find .op point.  (Use ".option noopiter" to skip.)
Starting Gmin stepping
Gmin = 10
Gmin = 1.07374
Gmin = 0.115292
Gmin = 0.0123794
Gmin = 0.00132923
Gmin = 0.000142725
Gmin = 1.5325e-005
Gmin = 1.6455e-006
Gmin = 1.76685e-007
Gmin = 1.89714e-008
Gmin = 2.03704e-009
Gmin = 2.18725e-010
Gmin = 2.34854e-011
Gmin = 2.52173e-012
Gmin = 2.70769e-013
Gmin = 0
Gmin stepping succeeded in finding the operating point.


Date: Fri Oct 30 03:46:36 2020
Total elapsed time: 0.143 seconds.

tnom = 27
temp = 27
method = modified trap
totiter = 2697
traniter = 2284
tranpoints = 1042
accept = 1042
rejected = 0
matrix size = 44
fillins = 32
solver = Normal
Thread vector: 8.8/4.4[3] 2.2/1.6[3] 1.4/2.6[1] 0.1/1.1[1]  2592/500
Matrix Compiler1: 2.69 KB object code size  0.5/0.3/[0.2]
Matrix Compiler2: 4.16 KB object code size  0.4/1.5/[0.4]


